Circuit: * C:\Study\Intern\Op-Amp-Github\Schematic.asc

Ignoring BSIM parameter XL
Ignoring BSIM parameter XW
Ignoring BSIM parameter XL
Ignoring BSIM parameter XW
Warning: Pd = 0 is less than W.
Warning: Ps = 0 is less than W.
Warning: Pd = 0 is less than W.
Warning: Ps = 0 is less than W.
Warning: Pd = 0 is less than W.
Warning: Ps = 0 is less than W.
Warning: Pd = 0 is less than W.
Warning: Ps = 0 is less than W.
Warning: Pd = 0 is less than W.
Warning: Ps = 0 is less than W.
Direct Newton iteration for .op point succeeded.

Date: Wed Jul 03 04:40:29 2024
Total elapsed time: 0.060 seconds.

tnom = 27
temp = 27
method = modified trap
totiter = 2092
traniter = 2082
tranpoints = 1042
accept = 1042
rejected = 0
matrix size = 13
fillins = 4
solver = Normal
Matrix Compiler1: 1.03 KB object code size  0.2/0.1/[0.1]
Matrix Compiler2: 1.16 KB object code size  0.1/0.2/[0.1]

